84
XYZ file generated by Avogadro.
Eu     2.13480    7.12470    5.72190
N     -0.19150    7.68280    4.54270
C     -1.35630    7.36250    5.41500
H     -2.18490    7.38440    4.87380
H     -1.43500    8.05250    6.12050
C     -1.21910    6.00100    6.06230
H     -1.98490    5.84880    6.67090
H     -1.24190    5.30150    5.36200
N      0.04420    5.88800    6.82650
C      0.35970    4.45810    7.07730
H     -0.47650    3.97010    7.28360
H      0.95590    4.38820    7.86460
C      1.03090    3.81690    5.88430
H      1.22370    2.86810    6.09110
H      0.41210    3.84010    5.11200
N      2.29550    4.50230    5.51660
C      2.69660    4.06560    4.14950
H      2.54680    3.09100    4.06060
H      3.66300    4.23840    4.02160
C      1.91480    4.78970    3.07930
H      2.23980    4.50840    2.18740
H      0.95820    4.54430    3.14800
N      2.05750    6.25980    3.21460
C      0.96380    6.93850    2.46570
H      0.81740    6.47150    1.60520
H      1.23290    7.86990    2.26580
C     -0.32840    6.94860    3.25670
H     -1.03890    7.37340    2.71360
H     -0.60380    6.01600    3.44210
C     -0.23670    9.14120    4.26850
H     -1.15140    9.39330    3.98590
H      0.38220    9.35430    3.52570
N      1.17580    9.50030    6.19180
C      0.14730    9.94050    5.48020
C     -0.54990   11.12890    5.79470
H     -1.26760   11.42130    5.24530
C     -0.18560   11.85510    6.89390
H     -0.68080   12.62620    7.14390
C      0.93330   11.44980    7.65520
C      1.39760   12.16600    8.78530
H      0.93990   12.94470    9.07920
C      2.51100   11.72820    9.45140
H      2.79410   12.18340   10.23570
C      3.24800   10.61000    8.99350
H      4.03450   10.34060    9.45310
C      2.82760    9.91080    7.88250
C      1.61640   10.27650    7.23410
O      3.50490    8.88530    7.28070
C      4.80050    8.52670    7.84340
H      5.02850    7.59880    7.58430
H      4.75520    8.56790    8.83140
C      5.87090    9.46570    7.34810
C      6.16960    9.48000    5.98210
H      5.67510    8.93400    5.38220
C      7.19330   10.29540    5.50060
H      7.39460   10.28590    4.57210
C      7.93340   11.12920    6.35170
C      7.61700   11.10250    7.71600
H      8.10180   11.65610    8.31700
C      6.60270   10.27800    8.21160
H      6.41120   10.27160    9.14210
B      9.07190   12.05750    5.77940
O      9.51220   11.80220    4.51180
H     10.06690   12.33490    4.20180
O      9.59880   13.09620    6.45730
H      9.27410   13.38190    7.15780
C     -0.08690    6.57240    8.12350
H     -0.69390    6.05560    8.71050
H     -0.48270    7.46940    7.98580
C      1.27430    6.71400    8.79630
O      2.29010    6.62520    8.02840
O      1.29810    6.93480   10.01820
C      3.39120    4.13830    6.43600
H      3.67940    3.20810    6.25800
H      3.07040    4.18790    7.37140
C      4.57170    5.08440    6.24910
O      4.32120    6.22160    5.73280
O      5.69880    4.70610    6.62540
C      3.35410    6.68760    2.63780
H      4.06600    5.90282    2.78686
H      3.18427    6.89164    1.60125
C      3.92200    7.99850    3.27640
O      3.16030    8.53080    4.14610
O      4.99970    8.46590    2.84250
