    16
 
C     3.53054170    0.70469275    0.04022833
C     3.48160888   -0.67069443    0.00088014
C    -3.56090644    0.78354085   -0.11477175
C    -3.44534328   -0.64466621    0.07297505
C     0.00064368    0.61176585    0.01521584
O    -0.03480649   -0.58979824    0.07635615
H     3.42946811    1.37384793    0.85415453
H     3.39378988    1.21445853   -0.91141744
H     3.43432169   -1.27128945    0.95097327
H     3.56810881   -1.25394430   -0.96236381
H    -3.55724884    1.34478204    0.90372366
H    -3.41518671    1.37207808   -0.88796294
H    -3.46539276   -1.25906342    0.93706180
H    -3.59757728   -1.30541787   -0.91474149
H    -0.01109458    1.05851490    0.95951437
H    -0.02853085    1.21951214   -0.86352360
    16
 
C     3.53345619    0.70126180    0.03814583
C     3.48033043   -0.66751145    0.00275319
C    -3.56004229    0.79352852   -0.12325577
C    -3.43757963   -0.64372943    0.06915015
C    -0.00192468    0.61466490    0.01684757
O    -0.03202440   -0.59112156    0.07315156
H     3.42852462    1.37047881    0.86109769
H     3.42974507    1.20571183   -0.92171108
H     3.43937079   -1.25569861    0.95853200
H     3.56805220   -1.24671405   -0.97420578
H    -3.54926917    1.36764495    0.90871420
H    -3.43199204    1.39492566   -0.89839346
H    -3.46785564   -1.25783701    0.93519153
H    -3.61555702   -1.28335222   -0.89438765
H    -0.01058418    1.07625716    0.92877007
H    -0.02734036    1.19282364   -0.87385716
    16
 
C     3.53648894    0.69814189    0.03581541
C     3.47925485   -0.66531822    0.00467783
C    -3.55915837    0.80187904   -0.12981331
C    -3.43002664   -0.64288929    0.06411953
C    -0.00449991    0.61691101    0.01810045
O    -0.02890293   -0.59214578    0.06967918
H     3.43837979    1.36226812    0.87294616
H     3.46926005    1.19590837   -0.92810475
H     3.44734083   -1.24240708    0.96057197
H     3.56244010   -1.23697274   -0.98347579
H    -3.54416590    1.37916675    0.90956675
H    -3.44928864    1.41589373   -0.91603411
H    -3.46937253   -1.26387991    0.93301798
H    -3.62825134   -1.26323709   -0.87127249
H    -0.01013581    1.10204706    0.89841243
H    -0.02435234    1.16674225   -0.89142339
    16
 
C     3.53953439    0.69540552    0.03330507
C     3.47835149   -0.66416112    0.00659222
C    -3.55818882    0.80857790   -0.13451538
C    -3.42267823   -0.64215160    0.05802873
C    -0.00707469    0.61836471    0.01882705
O    -0.02545963   -0.59282571    0.06591152
H     3.45709829    1.34883439    0.88891148
H     3.50939012    1.18529827   -0.93056826
H     3.45876872   -1.23166125    0.95756873
H     3.55099666   -1.22512215   -0.98946913
H    -3.54248450    1.37777566    0.90634516
H    -3.46603285    1.43297201   -0.93879893
H    -3.47045924   -1.27775394    0.93016713
H    -3.63440436   -1.24717034   -0.84692783
H    -0.00975523    1.13430508    0.87309070
H    -0.01983995    1.14367573   -0.91335724
